<?xml version="1.0" encoding="UTF-8"?>

<vehicleDefinitions xmlns="http://www.matsim.org/files/dtd" xmlns:xsi="http://www.w3.org/2001/XMLSchema-instance" xsi:schemaLocation="http://www.matsim.org/files/dtd http://www.matsim.org/files/dtd/vehicleDefinitions_v2.0.xsd">

	<vehicleType id="busType_assumed">

		<capacity seats="35" standingRoomInPersons="30">

		</capacity>
		<length meter="12.0"/>
		<width meter="1.0"/>
		<maximumVelocity meterPerSecond="8.333333333333334"/>
		<costInformation>

		</costInformation>
		<passengerCarEquivalents pce="2.5"/>
		<networkMode networkMode="pt"/>
		<flowEfficiencyFactor factor="1.0"/>
	</vehicleType>

	<vehicle id="route_inbound_veh_0" type="busType_assumed"/>
	<vehicle id="route_inbound_veh_1" type="busType_assumed"/>
	<vehicle id="route_inbound_veh_10" type="busType_assumed"/>
	<vehicle id="route_inbound_veh_100" type="busType_assumed"/>
	<vehicle id="route_inbound_veh_101" type="busType_assumed"/>
	<vehicle id="route_inbound_veh_102" type="busType_assumed"/>
	<vehicle id="route_inbound_veh_103" type="busType_assumed"/>
	<vehicle id="route_inbound_veh_104" type="busType_assumed"/>
	<vehicle id="route_inbound_veh_105" type="busType_assumed"/>
	<vehicle id="route_inbound_veh_106" type="busType_assumed"/>
	<vehicle id="route_inbound_veh_107" type="busType_assumed"/>
	<vehicle id="route_inbound_veh_108" type="busType_assumed"/>
	<vehicle id="route_inbound_veh_109" type="busType_assumed"/>
	<vehicle id="route_inbound_veh_11" type="busType_assumed"/>
	<vehicle id="route_inbound_veh_110" type="busType_assumed"/>
	<vehicle id="route_inbound_veh_111" type="busType_assumed"/>
	<vehicle id="route_inbound_veh_112" type="busType_assumed"/>
	<vehicle id="route_inbound_veh_113" type="busType_assumed"/>
	<vehicle id="route_inbound_veh_114" type="busType_assumed"/>
	<vehicle id="route_inbound_veh_115" type="busType_assumed"/>
	<vehicle id="route_inbound_veh_116" type="busType_assumed"/>
	<vehicle id="route_inbound_veh_117" type="busType_assumed"/>
	<vehicle id="route_inbound_veh_118" type="busType_assumed"/>
	<vehicle id="route_inbound_veh_119" type="busType_assumed"/>
	<vehicle id="route_inbound_veh_12" type="busType_assumed"/>
	<vehicle id="route_inbound_veh_120" type="busType_assumed"/>
	<vehicle id="route_inbound_veh_121" type="busType_assumed"/>
	<vehicle id="route_inbound_veh_122" type="busType_assumed"/>
	<vehicle id="route_inbound_veh_123" type="busType_assumed"/>
	<vehicle id="route_inbound_veh_124" type="busType_assumed"/>
	<vehicle id="route_inbound_veh_125" type="busType_assumed"/>
	<vehicle id="route_inbound_veh_126" type="busType_assumed"/>
	<vehicle id="route_inbound_veh_127" type="busType_assumed"/>
	<vehicle id="route_inbound_veh_128" type="busType_assumed"/>
	<vehicle id="route_inbound_veh_129" type="busType_assumed"/>
	<vehicle id="route_inbound_veh_13" type="busType_assumed"/>
	<vehicle id="route_inbound_veh_130" type="busType_assumed"/>
	<vehicle id="route_inbound_veh_131" type="busType_assumed"/>
	<vehicle id="route_inbound_veh_132" type="busType_assumed"/>
	<vehicle id="route_inbound_veh_133" type="busType_assumed"/>
	<vehicle id="route_inbound_veh_134" type="busType_assumed"/>
	<vehicle id="route_inbound_veh_135" type="busType_assumed"/>
	<vehicle id="route_inbound_veh_136" type="busType_assumed"/>
	<vehicle id="route_inbound_veh_137" type="busType_assumed"/>
	<vehicle id="route_inbound_veh_138" type="busType_assumed"/>
	<vehicle id="route_inbound_veh_139" type="busType_assumed"/>
	<vehicle id="route_inbound_veh_14" type="busType_assumed"/>
	<vehicle id="route_inbound_veh_140" type="busType_assumed"/>
	<vehicle id="route_inbound_veh_141" type="busType_assumed"/>
	<vehicle id="route_inbound_veh_142" type="busType_assumed"/>
	<vehicle id="route_inbound_veh_143" type="busType_assumed"/>
	<vehicle id="route_inbound_veh_144" type="busType_assumed"/>
	<vehicle id="route_inbound_veh_145" type="busType_assumed"/>
	<vehicle id="route_inbound_veh_146" type="busType_assumed"/>
	<vehicle id="route_inbound_veh_147" type="busType_assumed"/>
	<vehicle id="route_inbound_veh_148" type="busType_assumed"/>
	<vehicle id="route_inbound_veh_149" type="busType_assumed"/>
	<vehicle id="route_inbound_veh_15" type="busType_assumed"/>
	<vehicle id="route_inbound_veh_150" type="busType_assumed"/>
	<vehicle id="route_inbound_veh_151" type="busType_assumed"/>
	<vehicle id="route_inbound_veh_152" type="busType_assumed"/>
	<vehicle id="route_inbound_veh_153" type="busType_assumed"/>
	<vehicle id="route_inbound_veh_154" type="busType_assumed"/>
	<vehicle id="route_inbound_veh_155" type="busType_assumed"/>
	<vehicle id="route_inbound_veh_156" type="busType_assumed"/>
	<vehicle id="route_inbound_veh_157" type="busType_assumed"/>
	<vehicle id="route_inbound_veh_158" type="busType_assumed"/>
	<vehicle id="route_inbound_veh_159" type="busType_assumed"/>
	<vehicle id="route_inbound_veh_16" type="busType_assumed"/>
	<vehicle id="route_inbound_veh_160" type="busType_assumed"/>
	<vehicle id="route_inbound_veh_161" type="busType_assumed"/>
	<vehicle id="route_inbound_veh_162" type="busType_assumed"/>
	<vehicle id="route_inbound_veh_163" type="busType_assumed"/>
	<vehicle id="route_inbound_veh_164" type="busType_assumed"/>
	<vehicle id="route_inbound_veh_165" type="busType_assumed"/>
	<vehicle id="route_inbound_veh_166" type="busType_assumed"/>
	<vehicle id="route_inbound_veh_167" type="busType_assumed"/>
	<vehicle id="route_inbound_veh_168" type="busType_assumed"/>
	<vehicle id="route_inbound_veh_169" type="busType_assumed"/>
	<vehicle id="route_inbound_veh_17" type="busType_assumed"/>
	<vehicle id="route_inbound_veh_170" type="busType_assumed"/>
	<vehicle id="route_inbound_veh_18" type="busType_assumed"/>
	<vehicle id="route_inbound_veh_19" type="busType_assumed"/>
	<vehicle id="route_inbound_veh_2" type="busType_assumed"/>
	<vehicle id="route_inbound_veh_20" type="busType_assumed"/>
	<vehicle id="route_inbound_veh_21" type="busType_assumed"/>
	<vehicle id="route_inbound_veh_22" type="busType_assumed"/>
	<vehicle id="route_inbound_veh_23" type="busType_assumed"/>
	<vehicle id="route_inbound_veh_24" type="busType_assumed"/>
	<vehicle id="route_inbound_veh_25" type="busType_assumed"/>
	<vehicle id="route_inbound_veh_26" type="busType_assumed"/>
	<vehicle id="route_inbound_veh_27" type="busType_assumed"/>
	<vehicle id="route_inbound_veh_28" type="busType_assumed"/>
	<vehicle id="route_inbound_veh_29" type="busType_assumed"/>
	<vehicle id="route_inbound_veh_3" type="busType_assumed"/>
	<vehicle id="route_inbound_veh_30" type="busType_assumed"/>
	<vehicle id="route_inbound_veh_31" type="busType_assumed"/>
	<vehicle id="route_inbound_veh_32" type="busType_assumed"/>
	<vehicle id="route_inbound_veh_33" type="busType_assumed"/>
	<vehicle id="route_inbound_veh_34" type="busType_assumed"/>
	<vehicle id="route_inbound_veh_35" type="busType_assumed"/>
	<vehicle id="route_inbound_veh_36" type="busType_assumed"/>
	<vehicle id="route_inbound_veh_37" type="busType_assumed"/>
	<vehicle id="route_inbound_veh_38" type="busType_assumed"/>
	<vehicle id="route_inbound_veh_39" type="busType_assumed"/>
	<vehicle id="route_inbound_veh_4" type="busType_assumed"/>
	<vehicle id="route_inbound_veh_40" type="busType_assumed"/>
	<vehicle id="route_inbound_veh_41" type="busType_assumed"/>
	<vehicle id="route_inbound_veh_42" type="busType_assumed"/>
	<vehicle id="route_inbound_veh_43" type="busType_assumed"/>
	<vehicle id="route_inbound_veh_44" type="busType_assumed"/>
	<vehicle id="route_inbound_veh_45" type="busType_assumed"/>
	<vehicle id="route_inbound_veh_46" type="busType_assumed"/>
	<vehicle id="route_inbound_veh_47" type="busType_assumed"/>
	<vehicle id="route_inbound_veh_48" type="busType_assumed"/>
	<vehicle id="route_inbound_veh_49" type="busType_assumed"/>
	<vehicle id="route_inbound_veh_5" type="busType_assumed"/>
	<vehicle id="route_inbound_veh_50" type="busType_assumed"/>
	<vehicle id="route_inbound_veh_51" type="busType_assumed"/>
	<vehicle id="route_inbound_veh_52" type="busType_assumed"/>
	<vehicle id="route_inbound_veh_53" type="busType_assumed"/>
	<vehicle id="route_inbound_veh_54" type="busType_assumed"/>
	<vehicle id="route_inbound_veh_55" type="busType_assumed"/>
	<vehicle id="route_inbound_veh_56" type="busType_assumed"/>
	<vehicle id="route_inbound_veh_57" type="busType_assumed"/>
	<vehicle id="route_inbound_veh_58" type="busType_assumed"/>
	<vehicle id="route_inbound_veh_59" type="busType_assumed"/>
	<vehicle id="route_inbound_veh_6" type="busType_assumed"/>
	<vehicle id="route_inbound_veh_60" type="busType_assumed"/>
	<vehicle id="route_inbound_veh_61" type="busType_assumed"/>
	<vehicle id="route_inbound_veh_62" type="busType_assumed"/>
	<vehicle id="route_inbound_veh_63" type="busType_assumed"/>
	<vehicle id="route_inbound_veh_64" type="busType_assumed"/>
	<vehicle id="route_inbound_veh_65" type="busType_assumed"/>
	<vehicle id="route_inbound_veh_66" type="busType_assumed"/>
	<vehicle id="route_inbound_veh_67" type="busType_assumed"/>
	<vehicle id="route_inbound_veh_68" type="busType_assumed"/>
	<vehicle id="route_inbound_veh_69" type="busType_assumed"/>
	<vehicle id="route_inbound_veh_7" type="busType_assumed"/>
	<vehicle id="route_inbound_veh_70" type="busType_assumed"/>
	<vehicle id="route_inbound_veh_71" type="busType_assumed"/>
	<vehicle id="route_inbound_veh_72" type="busType_assumed"/>
	<vehicle id="route_inbound_veh_73" type="busType_assumed"/>
	<vehicle id="route_inbound_veh_74" type="busType_assumed"/>
	<vehicle id="route_inbound_veh_75" type="busType_assumed"/>
	<vehicle id="route_inbound_veh_76" type="busType_assumed"/>
	<vehicle id="route_inbound_veh_77" type="busType_assumed"/>
	<vehicle id="route_inbound_veh_78" type="busType_assumed"/>
	<vehicle id="route_inbound_veh_79" type="busType_assumed"/>
	<vehicle id="route_inbound_veh_8" type="busType_assumed"/>
	<vehicle id="route_inbound_veh_80" type="busType_assumed"/>
	<vehicle id="route_inbound_veh_81" type="busType_assumed"/>
	<vehicle id="route_inbound_veh_82" type="busType_assumed"/>
	<vehicle id="route_inbound_veh_83" type="busType_assumed"/>
	<vehicle id="route_inbound_veh_84" type="busType_assumed"/>
	<vehicle id="route_inbound_veh_85" type="busType_assumed"/>
	<vehicle id="route_inbound_veh_86" type="busType_assumed"/>
	<vehicle id="route_inbound_veh_87" type="busType_assumed"/>
	<vehicle id="route_inbound_veh_88" type="busType_assumed"/>
	<vehicle id="route_inbound_veh_89" type="busType_assumed"/>
	<vehicle id="route_inbound_veh_9" type="busType_assumed"/>
	<vehicle id="route_inbound_veh_90" type="busType_assumed"/>
	<vehicle id="route_inbound_veh_91" type="busType_assumed"/>
	<vehicle id="route_inbound_veh_92" type="busType_assumed"/>
	<vehicle id="route_inbound_veh_93" type="busType_assumed"/>
	<vehicle id="route_inbound_veh_94" type="busType_assumed"/>
	<vehicle id="route_inbound_veh_95" type="busType_assumed"/>
	<vehicle id="route_inbound_veh_96" type="busType_assumed"/>
	<vehicle id="route_inbound_veh_97" type="busType_assumed"/>
	<vehicle id="route_inbound_veh_98" type="busType_assumed"/>
	<vehicle id="route_inbound_veh_99" type="busType_assumed"/>
	<vehicle id="route_outbound_veh_0" type="busType_assumed"/>
	<vehicle id="route_outbound_veh_1" type="busType_assumed"/>
	<vehicle id="route_outbound_veh_10" type="busType_assumed"/>
	<vehicle id="route_outbound_veh_100" type="busType_assumed"/>
	<vehicle id="route_outbound_veh_101" type="busType_assumed"/>
	<vehicle id="route_outbound_veh_102" type="busType_assumed"/>
	<vehicle id="route_outbound_veh_103" type="busType_assumed"/>
	<vehicle id="route_outbound_veh_104" type="busType_assumed"/>
	<vehicle id="route_outbound_veh_105" type="busType_assumed"/>
	<vehicle id="route_outbound_veh_106" type="busType_assumed"/>
	<vehicle id="route_outbound_veh_107" type="busType_assumed"/>
	<vehicle id="route_outbound_veh_108" type="busType_assumed"/>
	<vehicle id="route_outbound_veh_109" type="busType_assumed"/>
	<vehicle id="route_outbound_veh_11" type="busType_assumed"/>
	<vehicle id="route_outbound_veh_110" type="busType_assumed"/>
	<vehicle id="route_outbound_veh_111" type="busType_assumed"/>
	<vehicle id="route_outbound_veh_112" type="busType_assumed"/>
	<vehicle id="route_outbound_veh_113" type="busType_assumed"/>
	<vehicle id="route_outbound_veh_114" type="busType_assumed"/>
	<vehicle id="route_outbound_veh_115" type="busType_assumed"/>
	<vehicle id="route_outbound_veh_116" type="busType_assumed"/>
	<vehicle id="route_outbound_veh_117" type="busType_assumed"/>
	<vehicle id="route_outbound_veh_118" type="busType_assumed"/>
	<vehicle id="route_outbound_veh_119" type="busType_assumed"/>
	<vehicle id="route_outbound_veh_12" type="busType_assumed"/>
	<vehicle id="route_outbound_veh_120" type="busType_assumed"/>
	<vehicle id="route_outbound_veh_121" type="busType_assumed"/>
	<vehicle id="route_outbound_veh_122" type="busType_assumed"/>
	<vehicle id="route_outbound_veh_123" type="busType_assumed"/>
	<vehicle id="route_outbound_veh_124" type="busType_assumed"/>
	<vehicle id="route_outbound_veh_125" type="busType_assumed"/>
	<vehicle id="route_outbound_veh_126" type="busType_assumed"/>
	<vehicle id="route_outbound_veh_127" type="busType_assumed"/>
	<vehicle id="route_outbound_veh_128" type="busType_assumed"/>
	<vehicle id="route_outbound_veh_129" type="busType_assumed"/>
	<vehicle id="route_outbound_veh_13" type="busType_assumed"/>
	<vehicle id="route_outbound_veh_130" type="busType_assumed"/>
	<vehicle id="route_outbound_veh_131" type="busType_assumed"/>
	<vehicle id="route_outbound_veh_132" type="busType_assumed"/>
	<vehicle id="route_outbound_veh_133" type="busType_assumed"/>
	<vehicle id="route_outbound_veh_134" type="busType_assumed"/>
	<vehicle id="route_outbound_veh_135" type="busType_assumed"/>
	<vehicle id="route_outbound_veh_136" type="busType_assumed"/>
	<vehicle id="route_outbound_veh_137" type="busType_assumed"/>
	<vehicle id="route_outbound_veh_138" type="busType_assumed"/>
	<vehicle id="route_outbound_veh_139" type="busType_assumed"/>
	<vehicle id="route_outbound_veh_14" type="busType_assumed"/>
	<vehicle id="route_outbound_veh_140" type="busType_assumed"/>
	<vehicle id="route_outbound_veh_141" type="busType_assumed"/>
	<vehicle id="route_outbound_veh_142" type="busType_assumed"/>
	<vehicle id="route_outbound_veh_143" type="busType_assumed"/>
	<vehicle id="route_outbound_veh_144" type="busType_assumed"/>
	<vehicle id="route_outbound_veh_145" type="busType_assumed"/>
	<vehicle id="route_outbound_veh_146" type="busType_assumed"/>
	<vehicle id="route_outbound_veh_147" type="busType_assumed"/>
	<vehicle id="route_outbound_veh_148" type="busType_assumed"/>
	<vehicle id="route_outbound_veh_149" type="busType_assumed"/>
	<vehicle id="route_outbound_veh_15" type="busType_assumed"/>
	<vehicle id="route_outbound_veh_150" type="busType_assumed"/>
	<vehicle id="route_outbound_veh_151" type="busType_assumed"/>
	<vehicle id="route_outbound_veh_152" type="busType_assumed"/>
	<vehicle id="route_outbound_veh_153" type="busType_assumed"/>
	<vehicle id="route_outbound_veh_154" type="busType_assumed"/>
	<vehicle id="route_outbound_veh_155" type="busType_assumed"/>
	<vehicle id="route_outbound_veh_156" type="busType_assumed"/>
	<vehicle id="route_outbound_veh_157" type="busType_assumed"/>
	<vehicle id="route_outbound_veh_158" type="busType_assumed"/>
	<vehicle id="route_outbound_veh_159" type="busType_assumed"/>
	<vehicle id="route_outbound_veh_16" type="busType_assumed"/>
	<vehicle id="route_outbound_veh_160" type="busType_assumed"/>
	<vehicle id="route_outbound_veh_161" type="busType_assumed"/>
	<vehicle id="route_outbound_veh_162" type="busType_assumed"/>
	<vehicle id="route_outbound_veh_163" type="busType_assumed"/>
	<vehicle id="route_outbound_veh_164" type="busType_assumed"/>
	<vehicle id="route_outbound_veh_165" type="busType_assumed"/>
	<vehicle id="route_outbound_veh_166" type="busType_assumed"/>
	<vehicle id="route_outbound_veh_167" type="busType_assumed"/>
	<vehicle id="route_outbound_veh_168" type="busType_assumed"/>
	<vehicle id="route_outbound_veh_169" type="busType_assumed"/>
	<vehicle id="route_outbound_veh_17" type="busType_assumed"/>
	<vehicle id="route_outbound_veh_170" type="busType_assumed"/>
	<vehicle id="route_outbound_veh_18" type="busType_assumed"/>
	<vehicle id="route_outbound_veh_19" type="busType_assumed"/>
	<vehicle id="route_outbound_veh_2" type="busType_assumed"/>
	<vehicle id="route_outbound_veh_20" type="busType_assumed"/>
	<vehicle id="route_outbound_veh_21" type="busType_assumed"/>
	<vehicle id="route_outbound_veh_22" type="busType_assumed"/>
	<vehicle id="route_outbound_veh_23" type="busType_assumed"/>
	<vehicle id="route_outbound_veh_24" type="busType_assumed"/>
	<vehicle id="route_outbound_veh_25" type="busType_assumed"/>
	<vehicle id="route_outbound_veh_26" type="busType_assumed"/>
	<vehicle id="route_outbound_veh_27" type="busType_assumed"/>
	<vehicle id="route_outbound_veh_28" type="busType_assumed"/>
	<vehicle id="route_outbound_veh_29" type="busType_assumed"/>
	<vehicle id="route_outbound_veh_3" type="busType_assumed"/>
	<vehicle id="route_outbound_veh_30" type="busType_assumed"/>
	<vehicle id="route_outbound_veh_31" type="busType_assumed"/>
	<vehicle id="route_outbound_veh_32" type="busType_assumed"/>
	<vehicle id="route_outbound_veh_33" type="busType_assumed"/>
	<vehicle id="route_outbound_veh_34" type="busType_assumed"/>
	<vehicle id="route_outbound_veh_35" type="busType_assumed"/>
	<vehicle id="route_outbound_veh_36" type="busType_assumed"/>
	<vehicle id="route_outbound_veh_37" type="busType_assumed"/>
	<vehicle id="route_outbound_veh_38" type="busType_assumed"/>
	<vehicle id="route_outbound_veh_39" type="busType_assumed"/>
	<vehicle id="route_outbound_veh_4" type="busType_assumed"/>
	<vehicle id="route_outbound_veh_40" type="busType_assumed"/>
	<vehicle id="route_outbound_veh_41" type="busType_assumed"/>
	<vehicle id="route_outbound_veh_42" type="busType_assumed"/>
	<vehicle id="route_outbound_veh_43" type="busType_assumed"/>
	<vehicle id="route_outbound_veh_44" type="busType_assumed"/>
	<vehicle id="route_outbound_veh_45" type="busType_assumed"/>
	<vehicle id="route_outbound_veh_46" type="busType_assumed"/>
	<vehicle id="route_outbound_veh_47" type="busType_assumed"/>
	<vehicle id="route_outbound_veh_48" type="busType_assumed"/>
	<vehicle id="route_outbound_veh_49" type="busType_assumed"/>
	<vehicle id="route_outbound_veh_5" type="busType_assumed"/>
	<vehicle id="route_outbound_veh_50" type="busType_assumed"/>
	<vehicle id="route_outbound_veh_51" type="busType_assumed"/>
	<vehicle id="route_outbound_veh_52" type="busType_assumed"/>
	<vehicle id="route_outbound_veh_53" type="busType_assumed"/>
	<vehicle id="route_outbound_veh_54" type="busType_assumed"/>
	<vehicle id="route_outbound_veh_55" type="busType_assumed"/>
	<vehicle id="route_outbound_veh_56" type="busType_assumed"/>
	<vehicle id="route_outbound_veh_57" type="busType_assumed"/>
	<vehicle id="route_outbound_veh_58" type="busType_assumed"/>
	<vehicle id="route_outbound_veh_59" type="busType_assumed"/>
	<vehicle id="route_outbound_veh_6" type="busType_assumed"/>
	<vehicle id="route_outbound_veh_60" type="busType_assumed"/>
	<vehicle id="route_outbound_veh_61" type="busType_assumed"/>
	<vehicle id="route_outbound_veh_62" type="busType_assumed"/>
	<vehicle id="route_outbound_veh_63" type="busType_assumed"/>
	<vehicle id="route_outbound_veh_64" type="busType_assumed"/>
	<vehicle id="route_outbound_veh_65" type="busType_assumed"/>
	<vehicle id="route_outbound_veh_66" type="busType_assumed"/>
	<vehicle id="route_outbound_veh_67" type="busType_assumed"/>
	<vehicle id="route_outbound_veh_68" type="busType_assumed"/>
	<vehicle id="route_outbound_veh_69" type="busType_assumed"/>
	<vehicle id="route_outbound_veh_7" type="busType_assumed"/>
	<vehicle id="route_outbound_veh_70" type="busType_assumed"/>
	<vehicle id="route_outbound_veh_71" type="busType_assumed"/>
	<vehicle id="route_outbound_veh_72" type="busType_assumed"/>
	<vehicle id="route_outbound_veh_73" type="busType_assumed"/>
	<vehicle id="route_outbound_veh_74" type="busType_assumed"/>
	<vehicle id="route_outbound_veh_75" type="busType_assumed"/>
	<vehicle id="route_outbound_veh_76" type="busType_assumed"/>
	<vehicle id="route_outbound_veh_77" type="busType_assumed"/>
	<vehicle id="route_outbound_veh_78" type="busType_assumed"/>
	<vehicle id="route_outbound_veh_79" type="busType_assumed"/>
	<vehicle id="route_outbound_veh_8" type="busType_assumed"/>
	<vehicle id="route_outbound_veh_80" type="busType_assumed"/>
	<vehicle id="route_outbound_veh_81" type="busType_assumed"/>
	<vehicle id="route_outbound_veh_82" type="busType_assumed"/>
	<vehicle id="route_outbound_veh_83" type="busType_assumed"/>
	<vehicle id="route_outbound_veh_84" type="busType_assumed"/>
	<vehicle id="route_outbound_veh_85" type="busType_assumed"/>
	<vehicle id="route_outbound_veh_86" type="busType_assumed"/>
	<vehicle id="route_outbound_veh_87" type="busType_assumed"/>
	<vehicle id="route_outbound_veh_88" type="busType_assumed"/>
	<vehicle id="route_outbound_veh_89" type="busType_assumed"/>
	<vehicle id="route_outbound_veh_9" type="busType_assumed"/>
	<vehicle id="route_outbound_veh_90" type="busType_assumed"/>
	<vehicle id="route_outbound_veh_91" type="busType_assumed"/>
	<vehicle id="route_outbound_veh_92" type="busType_assumed"/>
	<vehicle id="route_outbound_veh_93" type="busType_assumed"/>
	<vehicle id="route_outbound_veh_94" type="busType_assumed"/>
	<vehicle id="route_outbound_veh_95" type="busType_assumed"/>
	<vehicle id="route_outbound_veh_96" type="busType_assumed"/>
	<vehicle id="route_outbound_veh_97" type="busType_assumed"/>
	<vehicle id="route_outbound_veh_98" type="busType_assumed"/>
	<vehicle id="route_outbound_veh_99" type="busType_assumed"/>
		

</vehicleDefinitions>